src/Test_Network/C9_Master.dss
Clear
New Circuit.IEEE8500  
~ pu=1.05  r1=0  x1=0.001  r0=0  x0=0.001  
Redirect  LineCodes2.dss
Redirect  Triplex_Linecodes.dss
Redirect  C9_Lines.dss
Redirect  C9_Transformers.dss
Redirect  C9_LoadXfmrs.dss    ! Load Transformers
Redirect  C9_Triplex_Lines.dss
Redirect  C9_Loads.dss     ! Balanced Loads
Redirect  C9_Capacitors.dss
Redirect  C9_CapControls.dss
Redirect  C9_Regulators.dss
Set voltagebases=[115, 12.47,  0.48, 0.208]
Calcvoltagebases     ! This also establishes the bus list
Buscoords  C9_Buscoords.dss
